Circuit: * C:\Users\bms_p\Desktop\sram\6T sram trans.asc

v4: Removing PWL point (3e-09,0)
WARNING: Node NC_01 is floating.

Direct Newton iteration for .op point succeeded.

Date: Thu Feb 16 10:01:20 2023
Total elapsed time: 0.117 seconds.

tnom = 27
temp = 27
method = modified trap
totiter = 2688
traniter = 2681
tranpoints = 1236
accept = 1205
rejected = 31
matrix size = 11
fillins = 0
solver = Normal
Avg thread counts: 1.2/1.5/1.5/1.2
Matrix Compiler1: off  [0.1]/0.1/0.6
Matrix Compiler2: off  [0.1]/1.0/0.7

