Circuit: * C:\Users\bms_p\Desktop\sram\sram8t.asc

v4: Removing PWL point (3e-09,0)
Instance "m1": Length shorter than recommended for a level 1 MOSFET.
Instance "m1": Width narrower than recommended for a level 1 MOSFET.
Instance "m2": Length shorter than recommended for a level 1 MOSFET.
Instance "m2": Width narrower than recommended for a level 1 MOSFET.
Instance "m3": Length shorter than recommended for a level 1 MOSFET.
Instance "m3": Width narrower than recommended for a level 1 MOSFET.
Instance "m4": Length shorter than recommended for a level 1 MOSFET.
Instance "m4": Width narrower than recommended for a level 1 MOSFET.
Instance "m5": Length shorter than recommended for a level 1 MOSFET.
Instance "m5": Width narrower than recommended for a level 1 MOSFET.
Instance "m6": Length shorter than recommended for a level 1 MOSFET.
Instance "m6": Width narrower than recommended for a level 1 MOSFET.
Direct Newton iteration for .op point succeeded.

Date: Thu Feb 16 10:28:22 2023
Total elapsed time: 0.151 seconds.

tnom = 27
temp = 27
method = modified trap
totiter = 7509
traniter = 7481
tranpoints = 1966
accept = 1754
rejected = 212
matrix size = 16
fillins = 0
solver = Normal
Avg thread counts: 1.1/1.3/1.4/1.1
Matrix Compiler1: off  [0.2]/0.5/0.7
Matrix Compiler2: off  [0.3]/1.9/0.4

