Circuit: * C:\Users\bms_p\Desktop\sram\sram8t_snm.asc

Instance "m1": Length shorter than recommended for a level 1 MOSFET.
Instance "m1": Width narrower than recommended for a level 1 MOSFET.
Instance "m2": Length shorter than recommended for a level 1 MOSFET.
Instance "m2": Width narrower than recommended for a level 1 MOSFET.
Instance "m3": Length shorter than recommended for a level 1 MOSFET.
Instance "m3": Width narrower than recommended for a level 1 MOSFET.
Instance "m4": Length shorter than recommended for a level 1 MOSFET.
Instance "m4": Width narrower than recommended for a level 1 MOSFET.
Instance "m5": Length shorter than recommended for a level 1 MOSFET.
Instance "m5": Width narrower than recommended for a level 1 MOSFET.
Instance "m6": Length shorter than recommended for a level 1 MOSFET.
Instance "m6": Width narrower than recommended for a level 1 MOSFET.
.step v7=0
Direct Newton iteration failed to find .op point.  (Use ".option noopiter" to skip.)
Starting Gmin stepping
Gmin = 10
Gmin = 1.07374
Gmin = 0.115292
Gmin = 0.0123794
Gmin = 0.00132923
Gmin = 0.000142725
Gmin = 1.5325e-05
Gmin = 1.6455e-06
Gmin = 1.76685e-07
Gmin = 1.89714e-08
Gmin = 2.03704e-09
Gmin = 2.18725e-10
Gmin = 2.34854e-11
Gmin = 2.52173e-12
Gmin = 2.70769e-13
Gmin = 0
Gmin stepping succeeded in finding the operating point.

.step v7=0.01
.step v7=0.02
.step v7=0.03
Direct Newton iteration failed to find .op point.  (Use ".option noopiter" to skip.)
Starting Gmin stepping
Gmin = 10
Gmin = 1.07374
Gmin = 0.115292
Gmin = 0.0123794
Gmin = 0.00132923
Gmin = 0.000142725
Gmin = 1.5325e-05
Gmin = 1.6455e-06
Gmin = 1.76685e-07
Gmin = 1.89714e-08
Gmin = 2.03704e-09
Gmin = 2.18725e-10
Gmin = 2.34854e-11
Gmin = 2.52173e-12
Gmin = 2.70769e-13
Gmin = 0
Gmin stepping succeeded in finding the operating point.

.step v7=0.04
.step v7=0.05
.step v7=0.06
.step v7=0.07
.step v7=0.08
.step v7=0.09
.step v7=0.1
.step v7=0.11
.step v7=0.12
.step v7=0.13
.step v7=0.14
Direct Newton iteration failed to find .op point.  (Use ".option noopiter" to skip.)
Starting Gmin stepping
Gmin = 10
Gmin = 1.07374
Gmin = 0.115292
Gmin = 0.0123794
Gmin = 0.00132923
Gmin = 0.000142725
Gmin = 1.5325e-05
Gmin = 1.6455e-06
Gmin = 1.76685e-07
Gmin = 1.89714e-08
Gmin = 2.03704e-09
Gmin = 2.18725e-10
Gmin = 2.34854e-11
Gmin = 2.52173e-12
Gmin = 2.70769e-13
Gmin = 0
Gmin stepping succeeded in finding the operating point.

.step v7=0.15
.step v7=0.16
.step v7=0.17
.step v7=0.18
.step v7=0.19
.step v7=0.2
.step v7=0.21
.step v7=0.22
.step v7=0.23
Direct Newton iteration failed to find .op point.  (Use ".option noopiter" to skip.)
Starting Gmin stepping
Gmin = 10
Gmin = 1.07374
Gmin = 0.115292
Gmin = 0.0123794
Gmin = 0.00132923
Gmin = 0.000142725
Gmin = 1.5325e-05
Gmin = 1.6455e-06
Gmin = 1.76685e-07
Gmin = 1.89714e-08
Gmin = 2.03704e-09
Gmin = 2.18725e-10
Gmin = 2.34854e-11
Gmin = 2.52173e-12
Gmin = 2.70769e-13
Gmin = 0
Gmin stepping succeeded in finding the operating point.

.step v7=0.24
.step v7=0.25
.step v7=0.26
.step v7=0.27
.step v7=0.28
.step v7=0.29
.step v7=0.3
.step v7=0.31
.step v7=0.32
.step v7=0.33
.step v7=0.34
.step v7=0.35
.step v7=0.36
.step v7=0.37
.step v7=0.38
.step v7=0.39
.step v7=0.4
.step v7=0.41
.step v7=0.42
.step v7=0.43
.step v7=0.44
.step v7=0.45
.step v7=0.46
.step v7=0.47
.step v7=0.48
.step v7=0.49
.step v7=0.5
.step v7=0.51
.step v7=0.52
.step v7=0.53
.step v7=0.54
.step v7=0.55
.step v7=0.56
.step v7=0.57
.step v7=0.58
.step v7=0.59
.step v7=0.6
.step v7=0.61
.step v7=0.62
.step v7=0.63
.step v7=0.64
.step v7=0.65
.step v7=0.66
.step v7=0.67
.step v7=0.68
.step v7=0.69
.step v7=0.7
.step v7=0.71
.step v7=0.72
.step v7=0.73
.step v7=0.74
.step v7=0.75
.step v7=0.76
.step v7=0.77
.step v7=0.78
.step v7=0.79
.step v7=0.8
.step v7=0.81
.step v7=0.82
.step v7=0.83
.step v7=0.84
.step v7=0.85

Date: Thu Feb 16 10:26:21 2023
Total elapsed time: 0.406 seconds.

tnom = 27
temp = 27
method = trap
totiter = 18956
traniter = 0
tranpoints = 0
accept = 0
rejected = 0
matrix size = 18
fillins = 4
solver = Normal
Avg thread counts: 1.0/0.0/1.1/1.0
Matrix Compiler1: off  [0.3]/1.8/0.5
Matrix Compiler2: off  [0.2]/2.7/0.5

